7

O1         0.00000000        0.06303000        0.00000000
H2        -0.75265200       -0.50016600        0.00000000
H3         0.75265200       -0.50016600        0.00000000
N1         0.00000000        0.00000000        4.93682300
H2        -0.46679100       -0.80850600        5.29260300
H3        -0.46679100        0.80850600        5.29260300
H4         0.93358200        0.00000000        5.29260300
7

O1        -0.00000000        0.06303400        0.01273000
H2        -0.75265200       -0.50016200        0.01294800
H3         0.75265200       -0.50016200        0.01294800
N1         0.00010600       -0.01830000        4.26954600
H2        -3.67898100       -6.33149200        8.54848100
H3        -3.67931600        6.41223100        8.28139100
H4         7.35725400        0.04066000        8.41674800
7

O1         0.00000500        0.06304600        0.02539600
H2        -0.75267100       -0.50011600        0.02644200
H3         0.75263300       -0.50018300        0.02631900
N1        -0.00326500       -0.02612800        4.27251500
H2        -3.67516100       -6.33716900        8.56080700
H3        -3.68101000        6.40632500        8.28281700
H4         7.35831900        0.03939700        8.41175500
7

O1         0.00001600        0.06306400        0.03799700
H2        -0.75270900       -0.50002700        0.04048600
H3         0.75259400       -0.50022700        0.04011500
N1        -0.00670200       -0.03406800        4.27542900
H2        -3.67128400       -6.34283700        8.57332600
H3        -3.68273100        6.40040800        8.28406000
H4         7.35938400        0.03817900        8.40655500
7

O1         0.00003300        0.06309000        0.05053200
H2        -0.75276700       -0.49989100        0.05508400
H3         0.75253700       -0.50029100        0.05433600
N1        -0.01020500       -0.04212400        4.27827100
H2        -3.66735100       -6.34849900        8.58602400
H3        -3.68448400        6.39447700        8.28509600
H4         7.36044500        0.03700900        8.40113800
7

O1         0.00005500        0.06312200        0.06300300
H2        -0.75284300       -0.49970000        0.07024000
H3         0.75246100       -0.50037100        0.06898500
N1        -0.01377200       -0.05030100        4.28102400
H2        -3.66336200       -6.35415300        8.59888500
H3        -3.68627500        6.38853000        8.28589500
H4         7.36149900        0.03588700        8.39549500
7

O1         0.00008200        0.06315900        0.07540800
H2        -0.75293600       -0.49944700        0.08595700
H3         0.75236600       -0.50046200        0.08406300
N1        -0.01740200       -0.05860500        4.28367000
H2        -3.65931900       -6.35980200        8.61189200
H3        -3.68810900        6.38256400        8.28643000
H4         7.36254200        0.03481300        8.38961400
7

O1         0.00011500        0.06320200        0.08774700
H2        -0.75304800       -0.49912400        0.10224100
H3         0.75225300       -0.50055700        0.09957100
N1        -0.02109300       -0.06703900        4.28619100
H2        -3.65522200       -6.36544600        8.62502900
H3        -3.68999300        6.37657700        8.28667000
H4         7.36356900        0.03379100        8.38348500
7

O1         0.00015400        0.06324700        0.10002100
H2        -0.75317500       -0.49871900        0.11909400
H3         0.75212300       -0.50064700        0.11551100
N1        -0.02484400       -0.07560900        4.28856800
H2        -3.65107300       -6.37108500        8.63827600
H3        -3.69193200        6.37056700        8.28658500
H4         7.36457700        0.03281900        8.37709800
7

O1         0.00019800        0.06329600        0.11222800
H2        -0.75331800       -0.49821900        0.13652400
H3         0.75197700       -0.50072300        0.13188500
N1        -0.02865300       -0.08431900        4.29077900
H2        -3.64687300       -6.37672100        8.65161300
H3        -3.69393300        6.36453100        8.28614300
H4         7.36556000        0.03190100        8.37044200
7

O1         0.00024700        0.06334500        0.12436900
H2        -0.75347400       -0.49760900        0.15453200
H3         0.75181500       -0.50077300        0.14869400
N1        -0.03251700       -0.09317300        4.29280300
H2        -3.64262400       -6.38235400        8.66501800
H3        -3.69600200        6.35846700        8.28531100
H4         7.36651500        0.03103700        8.36350500
7

O1         0.00030200        0.06339300        0.13644300
H2        -0.75364200       -0.49687300        0.17312600
H3         0.75164000       -0.50078400        0.16593900
N1        -0.03643500       -0.10217500        4.29461800
H2        -3.63832800       -6.38798400        8.67846500
H3        -3.69814800        6.35237200        8.28405400
H4         7.36743600        0.03022800        8.35627500
7

O1         0.00036200        0.06343900        0.14845100
H2        -0.75382000       -0.49599100        0.19230800
H3         0.75145100       -0.50074400        0.18362300
N1        -0.04040300       -0.11133000        4.29619900
H2        -3.63398800       -6.39361200        8.69192900
H3        -3.70037600        6.34624300        8.28233800
H4         7.36831800        0.02947700        8.34874100
7

O1         0.00042600        0.06347900        0.16039300
H2        -0.75400500       -0.49494400        0.21208200
H3         0.75125200       -0.50063400        0.20174500
N1        -0.04441900       -0.12063900        4.29752200
H2        -3.62960600       -6.39923800        8.70538100
H3        -3.70269400        6.34007800        8.28012500
H4         7.36915500        0.02878300        8.34089000
7

O1         0.00049500        0.06351200        0.17226800
H2        -0.75419500       -0.49370900        0.23245400
H3         0.75104400       -0.50044000        0.22030500
N1        -0.04848100       -0.13010600        4.29855800
H2        -3.62518500       -6.40486400        8.71878900
H3        -3.70511100        6.33387400        8.27737800
H4         7.36994300        0.02814900        8.33270900
7

O1         0.00056800        0.06353600        0.18407700
H2        -0.75438700       -0.49226000        0.25342600
H3         0.75083000       -0.50014100        0.23930500
N1        -0.05258300       -0.13973300        4.29928100
H2        -3.62073000       -6.41048800        8.73211700
H3        -3.70763500        6.32762900        8.27405800
H4         7.37067500        0.02757600        8.32418600
7

O1         0.00064500        0.06354600        0.19582000
H2        -0.75457700       -0.49057000        0.27500000
H3         0.75061200       -0.49971700        0.25874200
N1        -0.05672300       -0.14952100        4.29965900
H2        -3.61624500       -6.41611100        8.74532800
H3        -3.71027300        6.32134100        8.27012300
H4         7.37134600        0.02706600        8.31530700
7

O1         0.00072600        0.06354100        0.20749700
H2        -0.75476000       -0.48861200        0.29717900
H3         0.75039200       -0.49914600        0.27861600
N1        -0.06089600       -0.15946900        4.29966000
H2        -3.61173600       -6.42173400        8.75837900
H3        -3.71303400        6.31500600        8.26553400
H4         7.37194800        0.02661900        8.30605800
7

O1         0.00080900        0.06351700        0.21911000
H2        -0.75493400       -0.48635200        0.31996400
H3         0.75017500       -0.49840500        0.29892300
N1        -0.06509800       -0.16957700        4.29925100
H2        -3.60720700       -6.42735700        8.77122300
H3        -3.71592800        6.30862300        8.26024700
H4         7.37247400        0.02623700        8.29642400
7

O1         0.00089600        0.06347000        0.23065800
H2        -0.75509100       -0.48375800        0.34335300
H3         0.74996400       -0.49746800        0.31965900
N1        -0.06932300       -0.17984300        4.29839400
H2        -3.60266600       -6.43297900        8.78380800
H3        -3.71896300        6.30218900        8.25422000
H4         7.37291800        0.02592100        8.28639100
7

O1         0.00098400        0.06339600        0.24214400
H2        -0.75522800       -0.48079400        0.36734600
H3         0.74976200       -0.49630900        0.34081900
N1        -0.07356700       -0.19026300        4.29705000
H2        -3.59812000       -6.43860100        8.79607700
H3        -3.72214900        6.29570300        8.24740700
H4         7.37327200        0.02567300        8.27594300
