3

O1         0.00000000        0.06303000        0.00000000
H2        -0.75265200       -0.50016600        0.00000000
H3         0.75265200       -0.50016600        0.00000000
3

O1         0.00000000        0.06364500        0.00000000
H2        -0.75763700       -0.50504400        0.00000000
H3         0.75763700       -0.50504400        0.00000000
3

O1         0.00000000        0.06516500        0.00000000
H2        -0.76899600       -0.51710500        0.00000000
H3         0.76899600       -0.51710500        0.00000000
3

O1         0.00000000        0.06689800        0.00000000
H2        -0.77919300       -0.53085900        0.00000000
H3         0.77919300       -0.53085900        0.00000000
3

O1         0.00000000        0.06821100        0.00000000
H2        -0.78162900       -0.54127800        0.00000000
H3         0.78162900       -0.54127800        0.00000000
3

O1         0.00000000        0.06874500        0.00000000
H2        -0.77356900       -0.54551500        0.00000000
H3         0.77356900       -0.54551500        0.00000000
3

O1        -0.00000000        0.06852100        0.00000000
H2        -0.75713300       -0.54373800        0.00000000
H3         0.75713300       -0.54373800        0.00000000
3

O1        -0.00000000        0.06792500        0.00000000
H2        -0.73881300       -0.53900600        0.00000000
H3         0.73881300       -0.53900600        0.00000000
3

O1        -0.00000000        0.06752000        0.00000000
H2        -0.72673600       -0.53579300        0.00000000
H3         0.72673600       -0.53579300        0.00000000
3

O1        -0.00000000        0.06774300        0.00000000
H2        -0.72670700       -0.53756400        0.00000000
H3         0.72670700       -0.53756400        0.00000000
3

O1        -0.00000000        0.06852400        0.00000000
H2        -0.73827200       -0.54376500        0.00000000
H3         0.73827200       -0.54376500        0.00000000
3

O1        -0.00000000        0.06934300        0.00000000
H2        -0.75530400       -0.55026500        0.00000000
H3         0.75530400       -0.55026500        0.00000000
3

O1        -0.00000000        0.06961900        0.00000000
H2        -0.76995200       -0.55245400        0.00000000
H3         0.76995200       -0.55245400        0.00000000
3

O1        -0.00000000        0.06898900        0.00000000
H2        -0.77636000       -0.54744900        0.00000000
H3         0.77636000       -0.54744900        0.00000000
3

O1        -0.00000000        0.06749100        0.00000000
H2        -0.77310100       -0.53556700        0.00000000
H3         0.77310100       -0.53556700        0.00000000
3

O1        -0.00000000        0.06555600        0.00000000
H2        -0.76343300       -0.52021000        0.00000000
H3         0.76343300       -0.52021000        0.00000000
3

O1         0.00000000        0.06388000        0.00000000
H2        -0.75411100       -0.50690700        0.00000000
H3         0.75411100       -0.50690800        0.00000000
3

O1         0.00000000        0.06315300        0.00000000
H2        -0.75221000       -0.50114500        0.00000000
H3         0.75221000       -0.50114500        0.00000000
3

O1         0.00000000        0.06363600        0.00000000
H2        -0.76019100       -0.50497500        0.00000000
H3         0.76019100       -0.50497500        0.00000000
3

O1         0.00000000        0.06495000        0.00000000
H2        -0.77345100       -0.51540200        0.00000000
H3         0.77345100       -0.51540200        0.00000000
3

O1         0.00000000        0.06641500        0.00000000
H2        -0.78416200       -0.52702900        0.00000000
H3         0.78416200       -0.52702900        0.00000000
3

O1         0.00000000        0.06746100        0.00000000
H2        -0.78607500       -0.53532500        0.00000000
H3         0.78607500       -0.53532500        0.00000000
3

O1         0.00000000        0.06781400        0.00000000
H2        -0.77695500       -0.53813100        0.00000000
H3         0.77695500       -0.53813100        0.00000000
3

O1         0.00000000        0.06757200        0.00000000
H2        -0.75952800       -0.53620900        0.00000000
H3         0.75952800       -0.53620900        0.00000000
3

O1         0.00000000        0.06715100        0.00000000
H2        -0.74070100       -0.53287000        0.00000000
H3         0.74070100       -0.53287000        0.00000000
3

O1         0.00000000        0.06709700        0.00000000
H2        -0.72867900       -0.53243900        0.00000000
H3         0.72867900       -0.53243900        0.00000000
3

O1         0.00000000        0.06774900        0.00000000
H2        -0.72873400       -0.53761500        0.00000000
H3         0.72873400       -0.53761500        0.00000000
3

O1         0.00000000        0.06890000        0.00000000
H2        -0.73950500       -0.54674900        0.00000000
H3         0.73950500       -0.54674900        0.00000000
3

O1         0.00000000        0.06996200        0.00000000
H2        -0.75468400       -0.55517500        0.00000000
H3         0.75468400       -0.55517500        0.00000000
3

O1         0.00000000        0.07033800        0.00000000
H2        -0.76681900       -0.55815400        0.00000000
H3         0.76681900       -0.55815400        0.00000000
3

O1         0.00000000        0.06968800        0.00000000
H2        -0.77089400       -0.55300000        0.00000000
H3         0.77089400       -0.55300000        0.00000000
3

O1         0.00000000        0.06809800        0.00000000
H2        -0.76631200       -0.54038400        0.00000000
H3         0.76631200       -0.54038400        0.00000000
3

O1        -0.00000000        0.06605700        0.00000000
H2        -0.75693600       -0.52418300        0.00000000
H3         0.75693600       -0.52418300        0.00000000
3

O1        -0.00000000        0.06429400        0.00000000
H2        -0.74967200       -0.51019200        0.00000000
H3         0.74967200       -0.51019200        0.00000000
3

O1        -0.00000000        0.06349800        0.00000000
H2        -0.75088000       -0.50387800        0.00000000
H3         0.75088000       -0.50387800        0.00000000
3

O1         0.00000000        0.06385700        0.00000000
H2        -0.76177200       -0.50673100        0.00000000
H3         0.76177200       -0.50673100        0.00000000
3

O1         0.00000000        0.06494500        0.00000000
H2        -0.77682700       -0.51536100        0.00000000
H3         0.77682700       -0.51536100        0.00000000
3

O1         0.00000000        0.06610000        0.00000000
H2        -0.78798700       -0.52452400        0.00000000
H3         0.78798700       -0.52452400        0.00000000
3

O1         0.00000000        0.06682200        0.00000000
H2        -0.78945000       -0.53025600        0.00000000
H3         0.78945000       -0.53025600        0.00000000
3

O1         0.00000000        0.06692200        0.00000000
H2        -0.77962000       -0.53104900        0.00000000
H3         0.77962000       -0.53104900        0.00000000
3

O1        -0.00000000        0.06658700        0.00000000
H2        -0.76183900       -0.52839200        0.00000000
H3         0.76183900       -0.52839200        0.00000000
3

O1        -0.00000000        0.06627800        0.00000000
H2        -0.74334100       -0.52594300        0.00000000
H3         0.74334100       -0.52594300        0.00000000
3

O1        -0.00000000        0.06652200        0.00000000
H2        -0.73214500       -0.52787900        0.00000000
H3         0.73214500       -0.52787900        0.00000000
3

O1        -0.00000000        0.06755700        0.00000000
H2        -0.73265800       -0.53608900        0.00000000
H3         0.73265800       -0.53608900        0.00000000
3

O1         0.00000000        0.06904200        0.00000000
H2        -0.74257100       -0.54787300        0.00000000
H3         0.74257100       -0.54787300        0.00000000
3

O1         0.00000000        0.07034000        0.00000000
H2        -0.75556200       -0.55817000        0.00000000
H3         0.75556200       -0.55817000        0.00000000
3

O1         0.00000000        0.07083400        0.00000000
H2        -0.76460700       -0.56209600        0.00000000
H3         0.76460700       -0.56209600        0.00000000
3

O1         0.00000000        0.07022600        0.00000000
H2        -0.76574200       -0.55726900        0.00000000
H3         0.76574200       -0.55726900        0.00000000
3

O1         0.00000000        0.06863900        0.00000000
H2        -0.75932800       -0.54467800        0.00000000
H3         0.75932800       -0.54467700        0.00000000
3

O1         0.00000000        0.06660500        0.00000000
H2        -0.75001300       -0.52853800        0.00000000
H3         0.75001300       -0.52853800        0.00000000
3

O1         0.00000000        0.06486500        0.00000000
H2        -0.74469400       -0.51472500        0.00000000
H3         0.74469400       -0.51472500        0.00000000
3

O1        -0.00000000        0.06406400        0.00000000
H2        -0.74888000       -0.50837000        0.00000000
H3         0.74888000       -0.50837000        0.00000000
3

O1        -0.00000000        0.06432200        0.00000000
H2        -0.76237000       -0.51041800        0.00000000
H3         0.76237000       -0.51041800        0.00000000
3

O1        -0.00000000        0.06517400        0.00000000
H2        -0.77887700       -0.51718200        0.00000000
H3         0.77887700       -0.51718200        0.00000000
3

O1         0.00000000        0.06599500        0.00000000
H2        -0.79035100       -0.52369100        0.00000000
H3         0.79035100       -0.52369100        0.00000000
3

O1         0.00000000        0.06635400        0.00000000
H2        -0.79140800       -0.52653900        0.00000000
H3         0.79140700       -0.52653900        0.00000000
3

O1         0.00000000        0.06615000        0.00000000
H2        -0.78115300       -0.52492200        0.00000000
H3         0.78115200       -0.52492200        0.00000000
3

O1         0.00000000        0.06565100        0.00000000
H2        -0.76357000       -0.52096300        0.00000000
H3         0.76357000       -0.52096300        0.00000000
3

O1         0.00000000        0.06538200        0.00000000
H2        -0.74611800       -0.51883300        0.00000000
H3         0.74611800       -0.51883300        0.00000000
3

O1        -0.00000000        0.06585600        0.00000000
H2        -0.73649300       -0.52258900        0.00000000
H3         0.73649300       -0.52258900        0.00000000
3

O1        -0.00000000        0.06720400        0.00000000
H2        -0.73798600       -0.53328900        0.00000000
H3         0.73798600       -0.53328900        0.00000000
3

O1        -0.00000000        0.06897100        0.00000000
H2        -0.74730700       -0.54731300        0.00000000
H3         0.74730700       -0.54731300        0.00000000
3

O1         0.00000000        0.07046700        0.00000000
H2        -0.75797000       -0.55918000        0.00000000
H3         0.75797000       -0.55918000        0.00000000
3

O1         0.00000000        0.07107400        0.00000000
H2        -0.76356200       -0.56399900        0.00000000
H3         0.76356200       -0.56399900        0.00000000
3

O1         0.00000000        0.07054100        0.00000000
H2        -0.76131600       -0.55976600        0.00000000
H3         0.76131600       -0.55976600        0.00000000
3

O1         0.00000000        0.06903500        0.00000000
H2        -0.75268000       -0.54781500        0.00000000
H3         0.75268000       -0.54781500        0.00000000
3

O1         0.00000000        0.06711800        0.00000000
H2        -0.74310600       -0.53260600        0.00000000
H3         0.74310600       -0.53260600        0.00000000
3

O1        -0.00000000        0.06551900        0.00000000
H2        -0.73942900       -0.51991600        0.00000000
H3         0.73942900       -0.51991700        0.00000000
3

O1        -0.00000000        0.06481200        0.00000000
H2        -0.74625000       -0.51430300        0.00000000
H3         0.74625000       -0.51430300        0.00000000
3

O1         0.00000000        0.06501400        0.00000000
H2        -0.76198900       -0.51591200        0.00000000
H3         0.76198900       -0.51591200        0.00000000
3

O1         0.00000000        0.06564900        0.00000000
H2        -0.77961000       -0.52094600        0.00000000
H3         0.77961000       -0.52094600        0.00000000
3

O1         0.00000000        0.06613000        0.00000000
H2        -0.79120000       -0.52476700        0.00000000
H3         0.79120000       -0.52476700        0.00000000
3

O1         0.00000000        0.06610200        0.00000000
H2        -0.79186600       -0.52454300        0.00000000
H3         0.79186500       -0.52454300        0.00000000
3

O1         0.00000000        0.06555600        0.00000000
H2        -0.78141000       -0.52021400        0.00000000
H3         0.78141000       -0.52021400        0.00000000
3

O1        -0.00000000        0.06484000        0.00000000
H2        -0.76442500       -0.51452500        0.00000000
H3         0.76442500       -0.51452500        0.00000000
3

O1        -0.00000000        0.06453500        0.00000000
H2        -0.74869600       -0.51211000        0.00000000
H3         0.74869600       -0.51211000        0.00000000
3

O1        -0.00000000        0.06515400        0.00000000
H2        -0.74136900       -0.51702100        0.00000000
H3         0.74136900       -0.51702100        0.00000000
3

O1        -0.00000000        0.06672200        0.00000000
H2        -0.74443000       -0.52946100        0.00000000
H3         0.74443000       -0.52946100        0.00000000
3

O1         0.00000000        0.06868800        0.00000000
H2        -0.75353700       -0.54506800        0.00000000
H3         0.75353700       -0.54506800        0.00000000
3

O1         0.00000000        0.07031400        0.00000000
H2        -0.76189200       -0.55797000        0.00000000
H3         0.76189200       -0.55797000        0.00000000
3

O1         0.00000000        0.07101300        0.00000000
H2        -0.76396200       -0.56351300        0.00000000
H3         0.76396200       -0.56351300        0.00000000
3

O1         0.00000000        0.07057800        0.00000000
H2        -0.75813300       -0.56006500        0.00000000
H3         0.75813300       -0.56006500        0.00000000
3

O1        -0.00000000        0.06922300        0.00000000
H2        -0.74700800       -0.54931200        0.00000000
H3         0.74700800       -0.54931200        0.00000000
3

O1        -0.00000000        0.06753400        0.00000000
H2        -0.73692900       -0.53591000        0.00000000
H3         0.73692900       -0.53591000        0.00000000
3

O1        -0.00000000        0.06619400        0.00000000
H2        -0.73452400       -0.52527500        0.00000000
H3         0.73452400       -0.52527500        0.00000000
3

O1        -0.00000000        0.06568000        0.00000000
H2        -0.74341000       -0.52119700        0.00000000
H3         0.74341100       -0.52119700        0.00000000
3

O1        -0.00000000        0.06589300        0.00000000
H2        -0.76070500       -0.52288800        0.00000000
H3         0.76070500       -0.52288800        0.00000000
3

O1         0.00000000        0.06634100        0.00000000
H2        -0.77889800       -0.52644300        0.00000000
H3         0.77889800       -0.52644300        0.00000000
3

O1         0.00000000        0.06649900        0.00000000
H2        -0.79026000       -0.52769700        0.00000000
H3         0.79026000       -0.52769700        0.00000000
3

O1         0.00000000        0.06608600        0.00000000
H2        -0.79049000       -0.52441400        0.00000000
H3         0.79049000       -0.52441400        0.00000000
3

O1         0.00000000        0.06518700        0.00000000
H2        -0.78011600       -0.51728400        0.00000000
H3         0.78011600       -0.51728400        0.00000000
3

O1        -0.00000000        0.06422700        0.00000000
H2        -0.76424100       -0.50966100        0.00000000
H3         0.76424200       -0.50966100        0.00000000
3

O1        -0.00000000        0.06383400        0.00000000
H2        -0.75083200       -0.50654300        0.00000000
H3         0.75083200       -0.50654300        0.00000000
3

O1        -0.00000000        0.06450500        0.00000000
H2        -0.74637800       -0.51186900        0.00000000
H3         0.74637800       -0.51186900        0.00000000
3

O1        -0.00000000        0.06617600        0.00000000
H2        -0.75142800       -0.52513400        0.00000000
H3         0.75142800       -0.52513400        0.00000000
3

O1        -0.00000000        0.06822500        0.00000000
H2        -0.76062800       -0.54139400        0.00000000
H3         0.76062800       -0.54139400        0.00000000
3

O1         0.00000000        0.06990700        0.00000000
H2        -0.76701200       -0.55473500        0.00000000
H3         0.76701200       -0.55473500        0.00000000
3

O1         0.00000000        0.07066500        0.00000000
H2        -0.76582600       -0.56075000        0.00000000
H3         0.76582600       -0.56075000        0.00000000
3

O1         0.00000000        0.07033900        0.00000000
H2        -0.75652500       -0.55816300        0.00000000
H3         0.75652400       -0.55816300        0.00000000
3

O1         0.00000000        0.06918900        0.00000000
H2        -0.74290100       -0.54904300        0.00000000
H3         0.74290100       -0.54904300        0.00000000
3

O1        -0.00000000        0.06780900        0.00000000
H2        -0.73202400       -0.53809100        0.00000000
H3         0.73202400       -0.53809100        0.00000000
