7

O1         0.00000000        0.06303000        0.00000000
H2        -0.75265200       -0.50016600        0.00000000
H3         0.75265200       -0.50016600        0.00000000
N1         0.00000000        0.00000000        4.93682300
H2        -0.46679100       -0.80850600        5.29260300
H3        -0.46679100        0.80850600        5.29260300
H4         0.93358200        0.00000000        5.29260300
7

O1         0.00000000        0.06303000        0.00000000
H2        -0.75265200       -0.50016600        0.00000000
H3         0.75265200       -0.50016600        0.00000000
N1        -0.00000000       -0.00000100        4.93007400
H2        -0.46679100       -0.80849500        5.28588200
H3        -0.46679100        0.80851700        5.28582800
H4         0.93358200        0.00001100        5.28585500
7

O1         0.00000000        0.06303000        0.00000000
H2        -0.75265200       -0.50016600        0.00000000
H3         0.75265200       -0.50016600        0.00000000
N1        -0.00000000       -0.00000400        4.92332500
H2        -0.46679100       -0.80846200        5.27921400
H3        -0.46679100        0.80855000        5.27899600
H4         0.93358200        0.00004400        5.27910500
7

O1         0.00000000        0.06303000        0.00000000
H2        -0.75265200       -0.50016600        0.00000000
H3         0.75265200       -0.50016600        0.00000000
N1        -0.00000000       -0.00000900        4.91657300
H2        -0.46679200       -0.80840700        5.27259900
H3        -0.46679100        0.80860500        5.27210800
H4         0.93358200        0.00009800        5.27235400
7

O1         0.00000000        0.06303000        0.00000000
H2        -0.75265200       -0.50016600        0.00000000
H3         0.75265200       -0.50016600        0.00000000
N1        -0.00000000       -0.00001700        4.90982000
H2        -0.46679200       -0.80833000        5.26603800
H3        -0.46679100        0.80868200        5.26516400
H4         0.93358200        0.00017500        5.26560100
7

O1         0.00000000        0.06303000        0.00000000
H2        -0.75265200       -0.50016600        0.00000000
H3         0.75265200       -0.50016600        0.00000000
N1        -0.00000000       -0.00002600        4.90306600
H2        -0.46679200       -0.80823100        5.25953000
H3        -0.46679100        0.80878100        5.25816200
H4         0.93358200        0.00027400        5.25884600
7

O1         0.00000000        0.06303000        0.00000000
H2        -0.75265200       -0.50016600        0.00000000
H3         0.75265200       -0.50016600        0.00000000
N1        -0.00000000       -0.00003800        4.89630900
H2        -0.46679200       -0.80810900        5.25307500
H3        -0.46679100        0.80890200        5.25110400
H4         0.93358200        0.00039500        5.25209000
7

O1         0.00000000        0.06303000        0.00000000
H2        -0.75265200       -0.50016600        0.00000000
H3         0.75265200       -0.50016600        0.00000000
N1        -0.00000000       -0.00005100        4.88955100
H2        -0.46679300       -0.80796500        5.24667500
H3        -0.46679000        0.80904500        5.24398800
H4         0.93358200        0.00053800        5.24533200
7

O1         0.00000000        0.06303000        0.00000000
H2        -0.75265200       -0.50016600        0.00000000
H3         0.75265200       -0.50016600        0.00000000
N1        -0.00000000       -0.00006700        4.88279200
H2        -0.46679300       -0.80779700        5.24032900
H3        -0.46679000        0.80921100        5.23681400
H4         0.93358200        0.00070400        5.23857200
7

O1         0.00000000        0.06303000        0.00000000
H2        -0.75265200       -0.50016600        0.00000000
H3         0.75265200       -0.50016600        0.00000000
N1        -0.00000000       -0.00008500        4.87603100
H2        -0.46679400       -0.80760700        5.23403700
H3        -0.46679000        0.80939900        5.22958200
H4         0.93358200        0.00089300        5.23181000
7

O1         0.00000000        0.06303000        0.00000000
H2        -0.75265200       -0.50016600        0.00000000
H3         0.75265200       -0.50016600        0.00000000
N1        -0.00000000       -0.00010500        4.86926800
H2        -0.46679400       -0.80739400        5.22780000
H3        -0.46678900        0.80960900        5.22229200
H4         0.93358200        0.00110400        5.22504700
7

O1         0.00000000        0.06303000        0.00000000
H2        -0.75265200       -0.50016600        0.00000000
H3         0.75265200       -0.50016600        0.00000000
N1        -0.00000000       -0.00012800        4.86250300
H2        -0.46679500       -0.80715700        5.22161800
H3        -0.46678900        0.80984200        5.21494400
H4         0.93358200        0.00133800        5.21828100
7

O1         0.00000000        0.06303000        0.00000000
H2        -0.75265200       -0.50016600        0.00000000
H3         0.75265200       -0.50016600        0.00000000
N1        -0.00000000       -0.00015200        4.85573700
H2        -0.46679500       -0.80689600        5.21549000
H3        -0.46678900        0.81009600        5.20753600
H4         0.93358200        0.00159400        5.21151400
7

O1         0.00000000        0.06303000        0.00000000
H2        -0.75265200       -0.50016600        0.00000000
H3         0.75265200       -0.50016600        0.00000000
N1        -0.00000100       -0.00017800        4.84897000
H2        -0.46679600       -0.80661200        5.20941800
H3        -0.46678800        0.81037300        5.20007000
H4         0.93358200        0.00187400        5.20474500
7

O1         0.00000000        0.06303000        0.00000000
H2        -0.75265200       -0.50016600        0.00000000
H3         0.75265200       -0.50016600        0.00000000
N1        -0.00000100       -0.00020700        4.84220000
H2        -0.46679700       -0.80630300        5.20340100
H3        -0.46678800        0.81067200        5.19254400
H4         0.93358200        0.00217600        5.19797300
7

O1         0.00000000        0.06303000        0.00000000
H2        -0.75265200       -0.50016600        0.00000000
H3         0.75265200       -0.50016600        0.00000000
N1        -0.00000100       -0.00023800        4.83542900
H2        -0.46679800       -0.80597100        5.19744000
H3        -0.46678700        0.81099300        5.18495800
H4         0.93358100        0.00250200        5.19120000
7

O1         0.00000000        0.06303000        0.00000000
H2        -0.75265200       -0.50016600        0.00000000
H3         0.75265200       -0.50016600        0.00000000
N1        -0.00000100       -0.00027100        4.82865600
H2        -0.46679900       -0.80561300        5.19153400
H3        -0.46678600        0.81133700        5.17731200
H4         0.93358100        0.00285100        5.18442400
7

O1         0.00000000        0.06303000        0.00000000
H2        -0.75265200       -0.50016600        0.00000000
H3         0.75265200       -0.50016600        0.00000000
N1        -0.00000100       -0.00030600        4.82188200
H2        -0.46679900       -0.80523100        5.18568400
H3        -0.46678600        0.81170200        5.16960500
H4         0.93358100        0.00322400        5.17764600
7

O1         0.00000000        0.06303000        0.00000000
H2        -0.75265200       -0.50016600        0.00000000
H3         0.75265200       -0.50016600        0.00000000
N1        -0.00000100       -0.00034400        4.81510600
H2        -0.46680000       -0.80482300        5.17989000
H3        -0.46678500        0.81208900        5.16183800
H4         0.93358100        0.00361900        5.17086500
7

O1         0.00000000        0.06303000        0.00000000
H2        -0.75265200       -0.50016600        0.00000000
H3         0.75265200       -0.50016600        0.00000000
N1        -0.00000100       -0.00038300        4.80832800
H2        -0.46680200       -0.80439000        5.17415200
H3        -0.46678400        0.81249700        5.15400900
H4         0.93358100        0.00403900        5.16408300
7

O1         0.00000000        0.06303000        0.00000000
H2        -0.75265200       -0.50016600        0.00000000
H3         0.75265200       -0.50016600        0.00000000
N1        -0.00000100       -0.00042500        4.80154900
H2        -0.46680300       -0.80393000        5.16847100
H3        -0.46678400        0.81292700        5.14611900
H4         0.93358100        0.00448200        5.15729700
7

O1         0.00000000        0.06303000        0.00000000
H2        -0.75265200       -0.50016600        0.00000000
H3         0.75265200       -0.50016600        0.00000000
N1        -0.00000200       -0.00046900        4.79476800
H2        -0.46680400       -0.80344500        5.16284600
H3        -0.46678300        0.81337900        5.13816700
H4         0.93358000        0.00494900        5.15050900
7

O1         0.00000000        0.06303000        0.00000000
H2        -0.75265200       -0.50016600        0.00000000
H3         0.75265200       -0.50016600        0.00000000
N1        -0.00000200       -0.00051500        4.78798600
H2        -0.46680500       -0.80293200        5.15727800
H3        -0.46678200        0.81385200        5.13015300
H4         0.93358000        0.00544000        5.14371800
7

O1         0.00000000        0.06303000        0.00000000
H2        -0.75265200       -0.50016600        0.00000000
H3         0.75265200       -0.50016600        0.00000000
N1        -0.00000200       -0.00056300        4.78120200
H2        -0.46680600       -0.80239300        5.15176700
H3        -0.46678100        0.81434600        5.12207600
H4         0.93358000        0.00595500        5.13692400
7

O1         0.00000000        0.06303000        0.00000000
H2        -0.75265200       -0.50016600        0.00000000
H3         0.75265200       -0.50016600        0.00000000
N1        -0.00000200       -0.00061400        4.77441600
H2        -0.46680800       -0.80182600        5.14631300
H3        -0.46678000        0.81486200        5.11393600
H4         0.93358000        0.00649400        5.13012700
7

O1         0.00000000        0.06303000        0.00000000
H2        -0.75265200       -0.50016600        0.00000000
H3         0.75265200       -0.50016600        0.00000000
N1        -0.00000200       -0.00066700        4.76762900
H2        -0.46680900       -0.80123200        5.14091600
H3        -0.46677900        0.81539800        5.10573300
H4         0.93358000        0.00705700        5.12332700
7

O1         0.00000000        0.06303000        0.00000000
H2        -0.75265200       -0.50016600        0.00000000
H3         0.75265200       -0.50016600        0.00000000
N1        -0.00000300       -0.00072200        4.76084000
H2        -0.46681000       -0.80060900        5.13557600
H3        -0.46677800        0.81595400        5.09746500
H4         0.93357900        0.00764500        5.11652400
7

O1         0.00000000        0.06303000        0.00000000
H2        -0.75265200       -0.50016600        0.00000000
H3         0.75265200       -0.50016600        0.00000000
N1        -0.00000300       -0.00077900        4.75405000
H2        -0.46681200       -0.79995700        5.13029400
H3        -0.46677700        0.81653100        5.08913400
H4         0.93357900        0.00825700        5.10971700
7

O1         0.00000000        0.06303000        0.00000000
H2        -0.75265200       -0.50016600        0.00000000
H3         0.75265200       -0.50016600        0.00000000
N1        -0.00000300       -0.00083800        4.74725800
H2        -0.46681400       -0.79927600        5.12506900
H3        -0.46677600        0.81712800        5.08073800
H4         0.93357900        0.00889400        5.10290700
7

O1         0.00000000        0.06303000        0.00000000
H2        -0.75265200       -0.50016600        0.00000000
H3         0.75265200       -0.50016600        0.00000000
N1        -0.00000300       -0.00090000        4.74046500
H2        -0.46681500       -0.79856500        5.11990200
H3        -0.46677500        0.81774600        5.07227700
H4         0.93357900        0.00955600        5.09609300
7

O1         0.00000000        0.06303000        0.00000000
H2        -0.75265200       -0.50016600        0.00000000
H3         0.75265200       -0.50016600        0.00000000
N1        -0.00000300       -0.00096400        4.73367000
H2        -0.46681700       -0.79782400        5.11479300
H3        -0.46677400        0.81838200        5.06375000
H4         0.93357800        0.01024200        5.08927600
7

O1         0.00000000        0.06303000        0.00000000
H2        -0.75265200       -0.50016600        0.00000000
H3         0.75265200       -0.50016600        0.00000000
N1        -0.00000400       -0.00103000        4.72687300
H2        -0.46681900       -0.79705300        5.10974200
H3        -0.46677300        0.81903800        5.05515800
H4         0.93357800        0.01095300        5.08245400
7

O1         0.00000000        0.06303000        0.00000000
H2        -0.75265200       -0.50016600        0.00000000
H3         0.75265200       -0.50016600        0.00000000
N1        -0.00000400       -0.00109900        4.72007600
H2        -0.46682000       -0.79625000        5.10474900
H3        -0.46677200        0.81971300        5.04649900
H4         0.93357800        0.01169000        5.07562800
7

O1         0.00000000        0.06303000        0.00000000
H2        -0.75265200       -0.50016600        0.00000000
H3         0.75265200       -0.50016600        0.00000000
N1        -0.00000400       -0.00116900        4.71327700
H2        -0.46682200       -0.79541500        5.09981500
H3        -0.46677000        0.82040700        5.03777300
H4         0.93357700        0.01245100        5.06879800
7

O1         0.00000000        0.06303000        0.00000000
H2        -0.75265200       -0.50016600        0.00000000
H3         0.75265200       -0.50016600        0.00000000
N1        -0.00000500       -0.00124200        4.70647600
H2        -0.46682400       -0.79454700        5.09493800
H3        -0.46676900        0.82111900        5.02898000
H4         0.93357700        0.01323800        5.06196400
7

O1         0.00000000        0.06303000        0.00000000
H2        -0.75265200       -0.50016600        0.00000000
H3         0.75265200       -0.50016600        0.00000000
N1        -0.00000500       -0.00131800        4.69967400
H2        -0.46682600       -0.79364700        5.09012000
H3        -0.46676800        0.82184900        5.02011900
H4         0.93357700        0.01405100        5.05512500
7

O1         0.00000000        0.06303000        0.00000000
H2        -0.75265200       -0.50016600        0.00000000
H3         0.75265200       -0.50016600        0.00000000
N1        -0.00000500       -0.00139500        4.69287100
H2        -0.46682800       -0.79271300        5.08536100
H3        -0.46676600        0.82259700        5.01119000
H4         0.93357700        0.01488900        5.04828100
7

O1         0.00000000        0.06303000        0.00000000
H2        -0.75265200       -0.50016600        0.00000000
H3         0.75265200       -0.50016600        0.00000000
N1        -0.00000600       -0.00147500        4.68606700
H2        -0.46683000       -0.79174500        5.08066000
H3        -0.46676500        0.82336200        5.00219300
H4         0.93357600        0.01575200        5.04143200
7

O1         0.00000000        0.06303000        0.00000000
H2        -0.75265200       -0.50016600        0.00000000
H3         0.75265200       -0.50016600        0.00000000
N1        -0.00000600       -0.00155700        4.67926100
H2        -0.46683200       -0.79074200        5.07601800
H3        -0.46676400        0.82414400        4.99312600
H4         0.93357600        0.01664200        5.03457800
7

O1         0.00000000        0.06303000        0.00000000
H2        -0.75265200       -0.50016600        0.00000000
H3         0.75265200       -0.50016600        0.00000000
N1        -0.00000600       -0.00164100        4.67245400
H2        -0.46683400       -0.78970400        5.07143400
H3        -0.46676200        0.82494200        4.98399000
H4         0.93357600        0.01755700        5.02771800
7

O1         0.00000000        0.06303000        0.00000000
H2        -0.75265200       -0.50016600        0.00000000
H3         0.75265200       -0.50016600        0.00000000
N1        -0.00000700       -0.00172800        4.66564600
H2        -0.46683600       -0.78862900        5.06691000
H3        -0.46676100        0.82575700        4.97478400
H4         0.93357500        0.01849900        5.02085300
7

O1         0.00000000        0.06303000        0.00000000
H2        -0.75265200       -0.50016600        0.00000000
H3         0.75265200       -0.50016600        0.00000000
N1        -0.00000700       -0.00181600        4.65883700
H2        -0.46683800       -0.78751700        5.06244400
H3        -0.46675900        0.82658700        4.96550700
H4         0.93357500        0.01946700        5.01398200
7

O1         0.00000000        0.06303000        0.00000000
H2        -0.75265200       -0.50016600        0.00000000
H3         0.75265200       -0.50016600        0.00000000
N1        -0.00000800       -0.00190800        4.65202600
H2        -0.46684100       -0.78636800        5.05803700
H3        -0.46675800        0.82743200        4.95615900
H4         0.93357400        0.02046000        5.00710400
7

O1         0.00000000        0.06303000        0.00000000
H2        -0.75265200       -0.50016600        0.00000000
H3         0.75265200       -0.50016600        0.00000000
N1        -0.00000800       -0.00200100        4.64521500
H2        -0.46684300       -0.78518000        5.05368900
H3        -0.46675700        0.82829100        4.94674000
H4         0.93357400        0.02148100        5.00022100
7

O1         0.00000000        0.06303000        0.00000000
H2        -0.75265200       -0.50016600        0.00000000
H3         0.75265200       -0.50016600        0.00000000
N1        -0.00000800       -0.00209700        4.63840200
H2        -0.46684500       -0.78395400        5.04940000
H3        -0.46675500        0.82916500        4.93724800
H4         0.93357400        0.02252800        4.99333100
7

O1         0.00000000        0.06303000        0.00000000
H2        -0.75265200       -0.50016600        0.00000000
H3         0.75265200       -0.50016600        0.00000000
N1        -0.00000900       -0.00219400        4.63158900
H2        -0.46684800       -0.78268700        5.04517000
H3        -0.46675400        0.83005200        4.92768400
H4         0.93357300        0.02360100        4.98643400
7

O1         0.00000000        0.06303000        0.00000000
H2        -0.75265200       -0.50016600        0.00000000
H3         0.75265200       -0.50016600        0.00000000
N1        -0.00000900       -0.00229500        4.62477500
H2        -0.46685000       -0.78138000        5.04099900
H3        -0.46675200        0.83095100        4.91804700
H4         0.93357300        0.02470100        4.97953000
7

O1         0.00000000        0.06303000        0.00000000
H2        -0.75265200       -0.50016600        0.00000000
H3         0.75265200       -0.50016600        0.00000000
N1        -0.00001000       -0.00239700        4.61795900
H2        -0.46685200       -0.78003100        5.03688700
H3        -0.46675000        0.83186400        4.90833600
H4         0.93357200        0.02582900        4.97261900
7

O1         0.00000000        0.06303000        0.00000000
H2        -0.75265200       -0.50016600        0.00000000
H3         0.75265200       -0.50016600        0.00000000
N1        -0.00001100       -0.00250200        4.61114300
H2        -0.46685500       -0.77863900        5.03283400
H3        -0.46674900        0.83278800        4.89855100
H4         0.93357200        0.02698300        4.96570000
7

O1         0.00000000        0.06303000        0.00000000
H2        -0.75265200       -0.50016600        0.00000000
H3         0.75265200       -0.50016600        0.00000000
N1        -0.00001100       -0.00260900        4.60432600
H2        -0.46685700       -0.77720500        5.02884000
H3        -0.46674700        0.83372200        4.88869200
H4         0.93357100        0.02816400        4.95877400
7

O1         0.00000000        0.06303000        0.00000000
H2        -0.75265200       -0.50016600        0.00000000
H3         0.75265200       -0.50016600        0.00000000
N1        -0.00001200       -0.00271800        4.59750900
H2        -0.46686000       -0.77572600        5.02490400
H3        -0.46674600        0.83466800        4.87875700
H4         0.93357100        0.02937200        4.95183900
